Version 4
SHEET 1 1572 772
WIRE 336 -496 160 -496
WIRE 416 -496 416 -512
WIRE 416 -496 400 -496
WIRE 448 -496 416 -496
WIRE 704 -496 672 -496
WIRE 160 -480 160 -496
WIRE 704 -480 704 -496
WIRE -128 -448 -144 -448
WIRE -32 -448 -48 -448
WIRE 48 -448 -32 -448
WIRE 64 -448 48 -448
WIRE -144 -432 -144 -448
WIRE 272 -432 208 -432
WIRE 448 -432 272 -432
WIRE 752 -432 672 -432
WIRE 208 -416 208 -432
WIRE -32 -400 -32 -448
WIRE 48 -400 48 -448
WIRE 304 -368 272 -368
WIRE 352 -368 304 -368
WIRE 448 -368 352 -368
WIRE 688 -368 672 -368
WIRE 704 -368 688 -368
WIRE 352 -352 352 -368
WIRE -144 -336 -144 -352
WIRE 272 -336 272 -368
WIRE -32 -320 -32 -336
WIRE 48 -320 48 -336
WIRE 448 -304 416 -304
WIRE 688 -304 688 -368
WIRE 688 -304 672 -304
WIRE 416 -256 416 -304
WIRE 752 -256 752 -432
WIRE 752 -256 416 -256
WIRE 784 -256 752 -256
WIRE 1024 -256 1008 -256
WIRE 1072 -256 1024 -256
WIRE 416 -240 416 -256
FLAG -144 -336 0
FLAG 64 -448 Vcc
FLAG 704 -480 0
FLAG 208 -352 0
FLAG 352 -272 0
FLAG 272 -272 0
FLAG 416 -160 0
FLAG 160 -400 0
FLAG 416 -512 +in
FLAG 272 -432 c1ext
FLAG 304 -368 c2ext
FLAG 704 -368 Vcc
FLAG 784 -256 Out
IOPIN 784 -256 Out
FLAG -32 -320 0
FLAG 48 -320 0
FLAG 928 -256 Out
IOPIN 928 -256 In
FLAG 1072 -256 Out2
IOPIN 1072 -256 Out
FLAG 1024 -192 0
SYMBOL voltage -144 -448 M0
WINDOW 123 0 0 Left 0
WINDOW 39 24 132 Left 0
SYMATTR SpiceLine Rser=0.3
SYMATTR InstName V1
SYMATTR Value 14
SYMBOL cap 192 -416 R0
WINDOW 0 23 8 Left 0
WINDOW 3 23 51 Left 0
SYMATTR InstName C1
SYMATTR Value 10nF
SYMBOL cap 256 -336 R0
WINDOW 0 24 16 Left 0
WINDOW 3 21 47 Left 0
SYMATTR InstName C2
SYMATTR Value .1µF
SYMBOL res 336 -368 R0
SYMATTR InstName R1
SYMATTR Value 47k
SYMBOL res 400 -256 R0
SYMATTR InstName R2
SYMATTR Value 10k
SYMBOL cap 336 -480 R270
WINDOW 0 32 32 VTop 0
WINDOW 3 0 32 VBottom 0
SYMATTR InstName C3
SYMATTR Value .1µF
SYMBOL voltage 160 -496 R0
WINDOW 3 -42 -26 Left 0
WINDOW 123 0 0 Left 0
WINDOW 39 0 0 Left 0
SYMATTR Value SINE(0 .1 .4k)
SYMATTR InstName V2
SYMBOL res -144 -432 R270
WINDOW 0 32 56 VTop 0
WINDOW 3 0 56 VBottom 0
SYMATTR InstName Rzener
SYMATTR Value 470
SYMBOL zener -48 -336 M180
WINDOW 0 24 72 Left 0
WINDOW 3 24 0 Left 0
SYMATTR InstName D1
SYMATTR Value 1N755
SYMATTR Description Diode
SYMATTR Type diode
SYMBOL cap 32 -400 R0
SYMATTR InstName C4
SYMATTR Value 10µF
SYMBOL res 912 -240 R270
WINDOW 0 32 56 VTop 0
WINDOW 3 0 56 VBottom 0
SYMATTR InstName R3
SYMATTR Value 100k
SYMBOL cap 1008 -256 R0
WINDOW 0 24 12 Left 0
WINDOW 3 21 47 Left 0
SYMATTR InstName C5
SYMATTR Value .1µF
SYMBOL Misc\\LM2907-8 560 -400 R0
SYMATTR InstName U1
TEXT -40 -200 Left 0 !.tran 0 100m 0 10u startup
