Version 4
SHEET 1 1572 772
WIRE 416 -560 416 -576
WIRE 544 -560 416 -560
WIRE 768 -560 624 -560
WIRE 336 -496 160 -496
WIRE 416 -496 416 -560
WIRE 416 -496 400 -496
WIRE 448 -496 416 -496
WIRE 160 -480 160 -496
WIRE -128 -448 -144 -448
WIRE -16 -448 -48 -448
WIRE 0 -448 -16 -448
WIRE 272 -448 208 -448
WIRE 448 -448 272 -448
WIRE -144 -432 -144 -448
WIRE 208 -416 208 -448
WIRE -16 -400 -16 -448
WIRE 304 -400 272 -400
WIRE 352 -400 304 -400
WIRE 416 -400 352 -400
WIRE 448 -400 416 -400
WIRE 704 -400 672 -400
WIRE 352 -384 352 -400
WIRE 704 -384 704 -400
WIRE 272 -368 272 -400
WIRE 416 -352 416 -400
WIRE 448 -352 416 -352
WIRE 768 -352 768 -560
WIRE 768 -352 672 -352
WIRE 800 -352 800 -384
WIRE 800 -352 768 -352
WIRE 864 -352 864 -368
WIRE 864 -352 800 -352
WIRE -144 -336 -144 -352
WIRE -16 -320 -16 -336
WIRE 448 -304 416 -304
WIRE 768 -304 672 -304
WIRE 704 -256 672 -256
WIRE 720 -256 704 -256
WIRE 704 -208 704 -256
WIRE 704 -208 672 -208
WIRE 416 -176 416 -304
WIRE 768 -176 768 -304
WIRE 768 -176 416 -176
WIRE 800 -176 768 -176
WIRE 1040 -176 1024 -176
WIRE 1088 -176 1040 -176
WIRE 416 -160 416 -176
FLAG -144 -336 0
FLAG 0 -448 Vcc
FLAG 704 -384 0
FLAG 720 -256 Vcc
FLAG 864 -272 0
FLAG 208 -352 0
FLAG 352 -304 0
FLAG 272 -304 0
FLAG 416 -80 0
FLAG 160 -400 0
FLAG 416 -576 +in
FLAG 272 -448 c1ext
FLAG 304 -400 c2ext
FLAG 864 -448 Vcc
FLAG 800 -176 Out
IOPIN 800 -176 Out
FLAG -16 -320 0
FLAG 800 -384 -in
FLAG 944 -176 Out
IOPIN 944 -176 In
FLAG 1088 -176 Out2
IOPIN 1088 -176 Out
FLAG 1040 -112 0
SYMBOL voltage -144 -448 M0
WINDOW 123 0 0 Left 0
WINDOW 39 24 132 Left 0
SYMATTR SpiceLine Rser=0.3
SYMATTR InstName V1
SYMATTR Value 14
SYMBOL cap 192 -416 R0
WINDOW 0 23 8 Left 0
WINDOW 3 23 51 Left 0
SYMATTR InstName C1
SYMATTR Value 10nF
SYMBOL cap 256 -368 R0
WINDOW 0 30 15 Left 0
WINDOW 3 25 47 Left 0
SYMATTR InstName C2
SYMATTR Value .1µF
SYMBOL res 336 -400 R0
SYMATTR InstName R1
SYMATTR Value 47k
SYMBOL res 400 -176 R0
SYMATTR InstName R5
SYMATTR Value 10k
SYMBOL cap 336 -480 R270
WINDOW 0 32 32 VTop 0
WINDOW 3 0 32 VBottom 0
SYMATTR InstName C3
SYMATTR Value .1µF
SYMBOL voltage 160 -496 R0
WINDOW 3 -42 -26 Left 0
WINDOW 123 0 0 Left 0
WINDOW 39 0 0 Left 0
SYMATTR Value SINE(0 .1 2k)
SYMATTR InstName V2
SYMBOL res 848 -464 R0
SYMATTR InstName R2
SYMATTR Value 9.1k
SYMBOL res 848 -368 R0
SYMATTR InstName R3
SYMATTR Value 1k
SYMBOL res 528 -544 R270
WINDOW 0 32 56 VTop 0
WINDOW 3 0 56 VBottom 0
SYMATTR InstName R4
SYMATTR Value 47k
SYMBOL res -144 -432 R270
WINDOW 0 32 56 VTop 0
WINDOW 3 0 56 VBottom 0
SYMATTR InstName Rzener
SYMATTR Value 470
SYMBOL cap -32 -400 R0
SYMATTR InstName C4
SYMATTR Value 10µF
SYMBOL res 928 -160 R270
WINDOW 0 32 56 VTop 0
WINDOW 3 0 56 VBottom 0
SYMATTR InstName R6
SYMATTR Value 100k
SYMBOL cap 1024 -176 R0
WINDOW 0 24 12 Left 0
WINDOW 3 21 47 Left 0
SYMATTR InstName C5
SYMATTR Value .1µF
SYMBOL Misc\\LM2917-14 560 -352 R0
SYMATTR InstName U1
TEXT -40 -200 Left 0 !.tran 0 100m 0 10u startup
